1

   Abaqus 6.14-2                                  Date 16-Feb-2017   Time 11:47:53
   

                                                                                 
                                                                                 
 STEP    1     INCREMENT     1     STEP TIME    0.00    


                        S T E P       1     C A L C U L A T I O N   O F   E I G E N V A L U E S

                                            F O R   N A T U R A L   F R E Q U E N C I E S



                                                                                          

     THE SUBSPACE ITERATION METHOD IS USED FOR THIS ANALYSIS
     NUMBER OF EIGENVALUES                     20
     HIGHEST FREQUENCY OF INTEREST                  1.00000E+18
     MAXIMUM NUMBER OF ITERATIONS                     30
     NUMBER OF VECTORS IN ITERATION                   28
     THE EIGENVECTORS ARE SCALED SO THAT 
      THE LARGEST DISPLACEMENT ENTRY IN EACH VECTOR
      IS UNITY

     THIS IS A LINEAR PERTURBATION STEP.
     ALL LOADS ARE DEFINED AS CHANGE IN LOAD TO THE REFERENCE STATE

     EXTRAPOLATION WILL NOT BE USED

     CHARACTERISTIC ELEMENT LENGTH      73.2    

     DETAILS REGARDING ACTUAL SOLUTION WAVEFRONT REQUESTED

     DETAILED OUTPUT OF DIAGNOSTICS TO DATABASE REQUESTED

     PRINT OF INCREMENT NUMBER, TIME, ETC., TO THE MESSAGE FILE EVERY     1  INCREMENTS

     COLLECTING MODEL CONSTRAINT INFORMATION FOR OVERCONSTRAINT CHECKS

     COLLECTING STEP CONSTRAINT INFORMATION FOR OVERCONSTRAINT CHECKS

  NUMBER OF EQUATIONS =     4686     NUMBER OF FLOATING PT. OPERATIONS =  7.75E+07

     CHECK POINT   START OF SOLVER    

     CHECK POINT  END OF SOLVER       

       ELAPSED USER TIME (SEC)      =   0.0000    
       ELAPSED SYSTEM TIME (SEC)    =   0.0000    
       ELAPSED TOTAL CPU TIME (SEC) =   0.0000    
       ELAPSED WALLCLOCK TIME (SEC) =          1

  NUMBER OF EQUATIONS =     4686     NUMBER OF FLOATING PT. OPERATIONS =  7.75E+07

     CHECK POINT   START OF SOLVER    

     CHECK POINT  END OF SOLVER       

       ELAPSED USER TIME (SEC)      =   0.0000    
       ELAPSED SYSTEM TIME (SEC)    =   0.0000    
       ELAPSED TOTAL CPU TIME (SEC) =   0.0000    
       ELAPSED WALLCLOCK TIME (SEC) =          0

          ITERATION  1  CURRENT ESTIMATES OF EIGENVALUES

              1  8.53134E-02    2   89.205        3   355.90        4   928.03        5   1365.2    
              6   3392.5        7   5327.5        8   10918.        9   20843.       10   23264.    
             11   29632.       12   46816.       13   49464.       14   67302.       15   82204.    
             16   90210.       17  1.04698E+05   18  1.85973E+05   19  1.97169E+05   20  2.39665E+05
             21  3.34658E+05   22  4.47663E+05   23  5.02546E+05   24  5.69138E+05   25  6.52260E+05
             26  6.74469E+05   27  1.08011E+06   28  2.10257E+06

  NUMBER OF EQUATIONS =     4686     NUMBER OF FLOATING PT. OPERATIONS =  7.75E+07

     CHECK POINT   START OF SOLVER    

     CHECK POINT  END OF SOLVER       

       ELAPSED USER TIME (SEC)      =   0.0000    
       ELAPSED SYSTEM TIME (SEC)    =  0.10000    
       ELAPSED TOTAL CPU TIME (SEC) =  0.10000    
       ELAPSED WALLCLOCK TIME (SEC) =          0

          ITERATION  2  CURRENT ESTIMATES OF EIGENVALUES

              1  8.53125E-02    2   87.790        3   338.67        4   816.66        5   1189.7    
              6   2550.5        7   3583.9        8   5655.3        9   6840.5       10   9969.7    
             11   11860.       12   13466.       13   14307.       14   14883.       15   16933.    
             16   19197.       17   22612.       18   24412.       19   26480.       20   31440.    
             21   35610.       22   37031.       23   46005.       24   54347.       25   70825.    
             26   92739.       27  1.18884E+05   28  1.32900E+05

  NUMBER OF EQUATIONS =     4686     NUMBER OF FLOATING PT. OPERATIONS =  7.75E+07

     CHECK POINT   START OF SOLVER    

     CHECK POINT  END OF SOLVER       

       ELAPSED USER TIME (SEC)      =   0.0000    
       ELAPSED SYSTEM TIME (SEC)    =   0.0000    
       ELAPSED TOTAL CPU TIME (SEC) =   0.0000    
       ELAPSED WALLCLOCK TIME (SEC) =          0

          ITERATION  3  CURRENT ESTIMATES OF EIGENVALUES

              1  8.53125E-02    2   87.790        3   338.67        4   816.66        5   1189.7    
              6   2550.1        7   3582.7        8   5646.6        9   6822.9       10   9829.5    
             11   11822.       12   13285.       13   13976.       14   14101.       15   16700.    
             16   18399.       17   22244.       18   23175.       19   23694.       20   30272.    
             21   32383.       22   34020.       23   39026.       24   43705.       25   58239.    
             26   60276.       27   66783.       28   79991.    

          THE FIRST    5  EIGENVALUES HAVE CONVERGED

  NUMBER OF EQUATIONS =     4686     NUMBER OF FLOATING PT. OPERATIONS =  7.75E+07

     CHECK POINT   START OF SOLVER    

     CHECK POINT  END OF SOLVER       

       ELAPSED USER TIME (SEC)      =   0.0000    
       ELAPSED SYSTEM TIME (SEC)    =   0.0000    
       ELAPSED TOTAL CPU TIME (SEC) =   0.0000    
       ELAPSED WALLCLOCK TIME (SEC) =          0

          ITERATION  4  CURRENT ESTIMATES OF EIGENVALUES

              1  8.53125E-02    2   87.790        3   338.67        4   816.66        5   1189.7    
              6   2550.1        7   3582.7        8   5646.5        9   6822.8       10   9824.4    
             11   11820.       12   13277.       13   13956.       14   14054.       15   16688.    
             16   18345.       17   22207.       18   22956.       19   23365.       20   30083.    
             21   31811.       22   33734.       23   37733.       24   41231.       25   52547.    
             26   55126.       27   58736.       28   70706.    

          THE FIRST    8  EIGENVALUES HAVE CONVERGED

  NUMBER OF EQUATIONS =     4686     NUMBER OF FLOATING PT. OPERATIONS =  7.75E+07

     CHECK POINT   START OF SOLVER    

     CHECK POINT  END OF SOLVER       

       ELAPSED USER TIME (SEC)      =   0.0000    
       ELAPSED SYSTEM TIME (SEC)    =   0.0000    
       ELAPSED TOTAL CPU TIME (SEC) =   0.0000    
       ELAPSED WALLCLOCK TIME (SEC) =          0

          ITERATION  5  CURRENT ESTIMATES OF EIGENVALUES

              1  8.53125E-02    2   87.790        3   338.67        4   816.66        5   1189.7    
              6   2550.1        7   3582.7        8   5646.5        9   6822.8       10   9824.2    
             11   11820.       12   13276.       13   13955.       14   14052.       15   16687.    
             16   18341.       17   22200.       18   22912.       19   23312.       20   30039.    
             21   31706.       22   33648.       23   37269.       24   40056.       25   49905.    
             26   53719.       27   57708.       28   65466.    

          THE FIRST    9  EIGENVALUES HAVE CONVERGED

  NUMBER OF EQUATIONS =     4686     NUMBER OF FLOATING PT. OPERATIONS =  7.75E+07

     CHECK POINT   START OF SOLVER    

     CHECK POINT  END OF SOLVER       

       ELAPSED USER TIME (SEC)      =   0.0000    
       ELAPSED SYSTEM TIME (SEC)    =   0.0000    
       ELAPSED TOTAL CPU TIME (SEC) =   0.0000    
       ELAPSED WALLCLOCK TIME (SEC) =          0

          ITERATION  6  CURRENT ESTIMATES OF EIGENVALUES

              1  8.53125E-02    2   87.790        3   338.67        4   816.66        5   1189.7    
              6   2550.1        7   3582.7        8   5646.5        9   6822.8       10   9824.2    
             11   11820.       12   13276.       13   13955.       14   14052.       15   16687.    
             16   18340.       17   22198.       18   22905.       19   23303.       20   30028.    
             21   31686.       22   33622.       23   37079.       24   39566.       25   49149.    
             26   53130.       27  1.37040E+05   28  2.09259E+05

          THE FIRST   15  EIGENVALUES HAVE CONVERGED

  NUMBER OF EQUATIONS =     4686     NUMBER OF FLOATING PT. OPERATIONS =  7.75E+07

     CHECK POINT   START OF SOLVER    

     CHECK POINT  END OF SOLVER       

       ELAPSED USER TIME (SEC)      =   0.0000    
       ELAPSED SYSTEM TIME (SEC)    =   0.0000    
       ELAPSED TOTAL CPU TIME (SEC) =   0.0000    
       ELAPSED WALLCLOCK TIME (SEC) =          0

          ITERATION  7  CURRENT ESTIMATES OF EIGENVALUES

              1  8.53125E-02    2   87.790        3   338.67        4   816.66        5   1189.7    
              6   2550.1        7   3582.7        8   5646.5        9   6822.8       10   9824.2    
             11   11820.       12   13276.       13   13955.       14   14052.       15   16687.    
             16   18340.       17   22198.       18   22904.       19   23301.       20   30025.    
             21   31682.       22   33615.       23   36997.       24   39358.       25   48848.    
             26   52821.       27   69108.       28   83241.    

          THE FIRST   17  EIGENVALUES HAVE CONVERGED

  NUMBER OF EQUATIONS =     4686     NUMBER OF FLOATING PT. OPERATIONS =  7.75E+07

     CHECK POINT   START OF SOLVER    

     CHECK POINT  END OF SOLVER       

       ELAPSED USER TIME (SEC)      =   0.0000    
       ELAPSED SYSTEM TIME (SEC)    =   0.0000    
       ELAPSED TOTAL CPU TIME (SEC) =   0.0000    
       ELAPSED WALLCLOCK TIME (SEC) =          0

          ITERATION  8  CURRENT ESTIMATES OF EIGENVALUES

              1  8.53125E-02    2   87.790        3   338.67        4   816.66        5   1189.7    
              6   2550.1        7   3582.7        8   5646.5        9   6822.8       10   9824.2    
             11   11820.       12   13276.       13   13955.       14   14052.       15   16687.    
             16   18340.       17   22198.       18   22904.       19   23301.       20   30024.    
             21   31681.       22   33612.       23   36961.       24   39269.       25   48677.    
             26   52652.       27   60701.       28   72865.    

          THE FIRST   18  EIGENVALUES HAVE CONVERGED

  NUMBER OF EQUATIONS =     4686     NUMBER OF FLOATING PT. OPERATIONS =  7.75E+07

     CHECK POINT   START OF SOLVER    

     CHECK POINT  END OF SOLVER       

       ELAPSED USER TIME (SEC)      =   0.0000    
       ELAPSED SYSTEM TIME (SEC)    =   0.0000    
       ELAPSED TOTAL CPU TIME (SEC) =   0.0000    
       ELAPSED WALLCLOCK TIME (SEC) =          0

          ITERATION  9  CURRENT ESTIMATES OF EIGENVALUES

              1  8.53125E-02    2   87.790        3   338.67        4   816.66        5   1189.7    
              6   2550.1        7   3582.7        8   5646.5        9   6822.8       10   9824.2    
             11   11820.       12   13276.       13   13955.       14   14052.       15   16687.    
             16   18340.       17   22198.       18   22903.       19   23301.       20   30024.    
             21   31681.       22   33611.       23   36946.       24   39228.       25   48562.    
             26   52547.       27   59180.       28   66584.    

          THE FIRST   20  EIGENVALUES HAVE CONVERGED


          THE ANALYSIS HAS BEEN COMPLETED



     ANALYSIS SUMMARY:
     TOTAL OF          1  INCREMENTS
                       0  CUTBACKS IN AUTOMATIC INCREMENTATION
                      10  ITERATIONS INCLUDING CONTACT ITERATIONS IF PRESENT
                      10  PASSES THROUGH THE EQUATION SOLVER OF WHICH 
                       1  INVOLVE MATRIX DECOMPOSITION, INCLUDING
                       0  DECOMPOSITION(S) OF THE MASS MATRIX
                       1  REORDERING OF EQUATIONS TO MINIMIZE WAVEFRONT
                       0  ADDITIONAL RESIDUAL EVALUATIONS FOR LINE SEARCHES
                       0  ADDITIONAL OPERATOR EVALUATIONS FOR LINE SEARCHES
                       0  WARNING MESSAGES DURING USER INPUT PROCESSING
                       0  WARNING MESSAGES DURING ANALYSIS
                       0  ANALYSIS WARNINGS ARE NUMERICAL PROBLEM MESSAGES
                       0  ANALYSIS WARNINGS ARE NEGATIVE EIGENVALUE MESSAGES
                       0  ERROR MESSAGES



     JOB TIME SUMMARY
       USER TIME (SEC)      =   3.6000    
       SYSTEM TIME (SEC)    =  0.20000    
       TOTAL CPU TIME (SEC) =   3.8000    
       WALLCLOCK TIME (SEC) =          4
