1

   Abaqus 6.14-2                                  Date 16-Feb-2017   Time 11:46:23
   

                                                                                 
                                                                                 
 STEP    1     INCREMENT     1     STEP TIME    0.00    


                        S T E P       1     C A L C U L A T I O N   O F   E I G E N V A L U E S

                                            F O R   B U C K L I N G   P R E D I C T I O N



                                                                                          

     THE SUBSPACE ITERATION METHOD IS USED FOR THIS ANALYSIS
     NUMBER OF EIGENVALUES                     10
     MAXIMUM NUMBER OF ITERATIONS                     30
     NUMBER OF VECTORS IN ITERATION                   18
     THE BUCKLING MODE CONSTRAINTS 
      ARE DEFINED AS LOAD CASE 2
                              ONLY INITIAL STRESS EFFECTS ARE INCLUDED IN THE
                              STIFFNESS MATRIX

     THIS IS A LINEAR PERTURBATION STEP.
     ALL LOADS ARE DEFINED AS CHANGE IN LOAD TO THE REFERENCE STATE

     EXTRAPOLATION WILL NOT BE USED

     CHARACTERISTIC ELEMENT LENGTH      73.2    

     DETAILS REGARDING ACTUAL SOLUTION WAVEFRONT REQUESTED

     DETAILED OUTPUT OF DIAGNOSTICS TO DATABASE REQUESTED

     PRINT OF INCREMENT NUMBER, TIME, ETC., TO THE MESSAGE FILE EVERY     1  INCREMENTS

  NUMBER OF EQUATIONS =     4686     NUMBER OF FLOATING PT. OPERATIONS =  7.75E+07

     CHECK POINT   START OF SOLVER    

     CHECK POINT  END OF SOLVER       

       ELAPSED USER TIME (SEC)      =   0.0000    
       ELAPSED SYSTEM TIME (SEC)    =   0.0000    
       ELAPSED TOTAL CPU TIME (SEC) =   0.0000    
       ELAPSED WALLCLOCK TIME (SEC) =          0
 
     ITERATION 1
      1       -1.188289e+002   
      2       2.568433e+002    
      3       -3.519372e+002   
      4       -3.667039e+002   
      5       -4.004194e+002   
      6       -5.311644e+002   
      7       -7.910268e+002   
      8       -8.777074e+002   
      9       -1.117198e+003   
      10      -1.174639e+003   
      11      -1.542811e+003   
      12      -1.650942e+003   
      13      -2.397242e+003   
      14      2.843040e+003    
      15      3.336588e+003    
      16      -5.129465e+003   
      17      8.068475e+003    
      18      -1.550968e+004   
 
     NUMBER OF EIGENVALUES CONVERGED UPTO THIS ITERATION = 0
 
     ITERATION 2
      1       1.025245e+001    
      2       -1.126095e+001   
      3       -1.530677e+002   
      4       -1.584618e+002   
      5       -1.633252e+002   
      6       -1.674319e+002   
      7       -1.815085e+002   
      8       -1.912344e+002   
      9       -2.011363e+002   
      10      -2.284680e+002   
      11      -2.348563e+002   
      12      -2.433997e+002   
      13      -2.888164e+002   
      14      -3.905404e+002   
      15      -4.453553e+002   
      16      -6.502865e+002   
      17      -7.442195e+002   
      18      -2.401657e+003   
 
     NUMBER OF EIGENVALUES CONVERGED UPTO THIS ITERATION = 0
 
     ITERATION 3
      1       1.020472e+001    
      2       -1.123721e+001   
      3       -1.420948e+002   
      4       -1.464711e+002   
      5       -1.520846e+002   
      6       -1.530916e+002   
      7       -1.641317e+002   
      8       -1.700817e+002   
      9       -1.787323e+002   
      10      -1.813972e+002   
      11      -1.973535e+002   
      12      -2.048342e+002   
      13      -2.362278e+002   
      14      -2.451295e+002   
      15      -2.538111e+002   
      16      -2.877341e+002   
      17      -3.177432e+002   
      18      -4.378764e+002   
 
     NUMBER OF EIGENVALUES CONVERGED UPTO THIS ITERATION = 0
 
     ITERATION 4
      1       1.020466e+001    
      2       -1.123717e+001   
      3       -1.405462e+002   
      4       -1.426865e+002   
      5       -1.501237e+002   
      6       -1.507317e+002   
      7       -1.613284e+002   
      8       -1.643300e+002   
      9       -1.738681e+002   
      10      -1.759075e+002   
      11      -1.888196e+002   
      12      -2.000902e+002   
      13      -2.064575e+002   
      14      -2.122846e+002   
      15      -2.380874e+002   
      16      -2.576621e+002   
      17      -2.614466e+002   
      18      -3.018100e+002   
 
     NUMBER OF EIGENVALUES CONVERGED UPTO THIS ITERATION = 0
 
     ITERATION 5
      1       1.020466e+001    
      2       -1.123717e+001   
      3       -1.402288e+002   
      4       -1.411136e+002   
      5       -1.497570e+002   
      6       -1.501122e+002   
      7       -1.605681e+002   
      8       -1.622081e+002   
      9       -1.724895e+002   
      10      -1.740637e+002   
      11      -1.857917e+002   
      12      -1.979589e+002   
      13      -1.993019e+002   
      14      -2.022756e+002   
      15      -2.298250e+002   
      16      -2.384759e+002   
      17      -2.502210e+002   
      18      -2.736757e+002   
 
     NUMBER OF EIGENVALUES CONVERGED UPTO THIS ITERATION = 2
 
     ITERATION 6
      1       1.020466e+001    
      2       -1.123717e+001   
      3       -1.401317e+002   
      4       -1.404502e+002   
      5       -1.496760e+002   
      6       -1.498540e+002   
      7       -1.602947e+002   
      8       -1.611974e+002   
      9       -1.719506e+002   
      10      -1.730005e+002   
      11      -1.848188e+002   
      12      -1.912553e+002   
      13      -1.984999e+002   
      14      -2.006274e+002   
      15      -2.232883e+002   
      16      -2.326350e+002   
      17      -2.459301e+002   
      18      -2.612835e+002   
 
     NUMBER OF EIGENVALUES CONVERGED UPTO THIS ITERATION = 2
 
     ITERATION 7
      1       1.020466e+001    
      2       -1.123717e+001   
      3       -1.400963e+002   
      4       -1.402008e+002   
      5       -1.496541e+002   
      6       -1.497334e+002   
      7       -1.601813e+002   
      8       -1.606503e+002   
      9       -1.717161e+002   
      10      -1.723198e+002   
      11      -1.844349e+002   
      12      -1.876421e+002   
      13      -1.982493e+002   
      14      -1.998227e+002   
      15      -2.201922e+002   
      16      -2.287051e+002   
      17      -2.431134e+002   
      18      -2.531184e+002   
 
     NUMBER OF EIGENVALUES CONVERGED UPTO THIS ITERATION = 2
 
     ITERATION 8
      1       1.020466e+001    
      2       -1.123717e+001   
      3       -1.400835e+002   
      4       -1.401161e+002   
      5       -1.496472e+002   
      6       -1.496797e+002   
      7       -1.601317e+002   
      8       -1.603618e+002   
      9       -1.716124e+002   
      10      -1.719255e+002   
      11      -1.842590e+002   
      12      -1.858718e+002   
      13      -1.981116e+002   
      14      -1.992685e+002   
      15      -2.185055e+002   
      16      -2.250666e+002   
      17      -2.408332e+002   
      18      -2.473731e+002   
 
     NUMBER OF EIGENVALUES CONVERGED UPTO THIS ITERATION = 2
 
     ITERATION 9
      1       1.020466e+001    
      2       -1.123717e+001   
      3       -1.400790e+002   
      4       -1.400890e+002   
      5       -1.496448e+002   
      6       -1.496574e+002   
      7       -1.601099e+002   
      8       -1.602185e+002   
      9       -1.715670e+002   
      10      -1.717193e+002   
      11      -1.841719e+002   
      12      -1.849974e+002   
      13      -1.980283e+002   
      14      -1.988417e+002   
      15      -2.173847e+002   
      16      -2.217789e+002   
      17      -2.387560e+002   
      18      -2.435734e+002   
 
     NUMBER OF EIGENVALUES CONVERGED UPTO THIS ITERATION = 2
 
     ITERATION 10
      1       1.020466e+001    
      2       -1.123717e+001   
      3       -1.400776e+002   
      4       -1.400806e+002   
      5       -1.496440e+002   
      6       -1.496487e+002   
      7       -1.601005e+002   
      8       -1.601506e+002   
      9       -1.715475e+002   
      10      -1.716185e+002   
      11      -1.841272e+002   
      12      -1.845563e+002   
      13      -1.979750e+002   
      14      -1.985135e+002   
      15      -2.165353e+002   
      16      -2.190979e+002   
      17      -2.368673e+002   
      18      -2.411464e+002   
 
     NUMBER OF EIGENVALUES CONVERGED UPTO THIS ITERATION = 2
 
     ITERATION 11
      1       1.020466e+001    
      2       -1.123717e+001   
      3       -1.400771e+002   
      4       -1.400780e+002   
      5       -1.496437e+002   
      6       -1.496454e+002   
      7       -1.600966e+002   
      8       -1.601193e+002   
      9       -1.715391e+002   
      10      -1.715713e+002   
      11      -1.841039e+002   
      12      -1.843296e+002   
      13      -1.979399e+002   
      14      -1.982748e+002   
      15      -2.158421e+002   
      16      -2.171208e+002   
      17      -2.352846e+002   
      18      -2.394866e+002   
 
     NUMBER OF EIGENVALUES CONVERGED UPTO THIS ITERATION = 2
 
     ITERATION 12
      1       1.020466e+001    
      2       -1.123717e+001   
      3       -1.400770e+002   
      4       -1.400772e+002   
      5       -1.496435e+002   
      6       -1.496442e+002   
      7       -1.600951e+002   
      8       -1.601053e+002   
      9       -1.715356e+002   
      10      -1.715499e+002   
      11      -1.840918e+002   
      12      -1.842115e+002   
      13      -1.979164e+002   
      14      -1.981131e+002   
      15      -2.152336e+002   
      16      -2.157906e+002   
      17      -2.340368e+002   
      18      -2.382258e+002   
 
     NUMBER OF EIGENVALUES CONVERGED UPTO THIS ITERATION = 4
 
     ITERATION 13
      1       1.020466e+001    
      2       -1.123717e+001   
      3       -1.400769e+002   
      4       -1.400770e+002   
      5       -1.496435e+002   
      6       -1.496437e+002   
      7       -1.600945e+002   
      8       -1.600990e+002   
      9       -1.715340e+002   
      10      -1.715403e+002   
      11      -1.840855e+002   
      12      -1.841494e+002   
      13      -1.979004e+002   
      14      -1.980105e+002   
      15      -2.146223e+002   
      16      -2.150226e+002   
      17      -2.330763e+002   
      18      -2.371938e+002   
 
     NUMBER OF EIGENVALUES CONVERGED UPTO THIS ITERATION = 4
 
     ITERATION 14
      1       1.020466e+001    
      2       -1.123717e+001   
      3       -1.400769e+002   
      4       -1.400769e+002   
      5       -1.496435e+002   
      6       -1.496436e+002   
      7       -1.600942e+002   
      8       -1.600962e+002   
      9       -1.715333e+002   
      10      -1.715361e+002   
      11      -1.840822e+002   
      12      -1.841164e+002   
      13      -1.978895e+002   
      14      -1.979488e+002   
      15      -2.140942e+002   
      16      -2.145747e+002   
      17      -2.323419e+002   
      18      -2.363124e+002   
 
     NUMBER OF EIGENVALUES CONVERGED UPTO THIS ITERATION = 5
 
     ITERATION 15
      1       1.020466e+001    
      2       -1.123717e+001   
      3       -1.400769e+002   
      4       -1.400769e+002   
      5       -1.496435e+002   
      6       -1.496435e+002   
      7       -1.600942e+002   
      8       -1.600950e+002   
      9       -1.715330e+002   
      10      -1.715343e+002   
      11      -1.840805e+002   
      12      -1.840989e+002   
      13      -1.978822e+002   
      14      -1.979130e+002   
      15      -2.137301e+002   
      16      -2.142459e+002   
      17      -2.317807e+002   
      18      -2.355420e+002   
 
     NUMBER OF EIGENVALUES CONVERGED UPTO THIS ITERATION = 7
 
     ITERATION 16
      1       1.020466e+001    
      2       -1.123717e+001   
      3       -1.400769e+002   
      4       -1.400769e+002   
      5       -1.496435e+002   
      6       -1.496435e+002   
      7       -1.600941e+002   
      8       -1.600945e+002   
      9       -1.715329e+002   
      10      -1.715334e+002   
      11      -1.840795e+002   
      12      -1.840895e+002   
      13      -1.978771e+002   
      14      -1.978927e+002   
      15      -2.134926e+002   
      16      -2.139875e+002   
      17      -2.313513e+002   
      18      -2.348606e+002   
 
     NUMBER OF EIGENVALUES CONVERGED UPTO THIS ITERATION = 8
 
     ITERATION 17
      1       1.020466e+001    
      2       -1.123717e+001   
      3       -1.400769e+002   
      4       -1.400769e+002   
      5       -1.496435e+002   
      6       -1.496435e+002   
      7       -1.600941e+002   
      8       -1.600943e+002   
      9       -1.715328e+002   
      10      -1.715331e+002   
      11      -1.840790e+002   
      12      -1.840844e+002   
      13      -1.978737e+002   
      14      -1.978815e+002   
      15      -2.133397e+002   
      16      -2.137823e+002   
      17      -2.310219e+002   
      18      -2.342544e+002   
 
     NUMBER OF EIGENVALUES CONVERGED UPTO THIS ITERATION = 8
 
     ITERATION 18
      1       1.020466e+001    
      2       -1.123717e+001   
      3       -1.400769e+002   
      4       -1.400769e+002   
      5       -1.496435e+002   
      6       -1.496435e+002   
      7       -1.600941e+002   
      8       -1.600942e+002   
      9       -1.715328e+002   
      10      -1.715329e+002   
      11      -1.840788e+002   
      12      -1.840817e+002   
      13      -1.978714e+002   
      14      -1.978753e+002   
      15      -2.132413e+002   
      16      -2.136196e+002   
      17      -2.307685e+002   
      18      -2.337141e+002   
 
     NUMBER OF EIGENVALUES CONVERGED UPTO THIS ITERATION = 10


          THE ANALYSIS HAS BEEN COMPLETED



     ANALYSIS SUMMARY:
     TOTAL OF          1  INCREMENTS
                       0  CUTBACKS IN AUTOMATIC INCREMENTATION
                       1  ITERATIONS INCLUDING CONTACT ITERATIONS IF PRESENT
                       1  PASSES THROUGH THE EQUATION SOLVER OF WHICH 
                       1  INVOLVE MATRIX DECOMPOSITION, INCLUDING
                       0  DECOMPOSITION(S) OF THE MASS MATRIX
                       1  REORDERING OF EQUATIONS TO MINIMIZE WAVEFRONT
                       0  ADDITIONAL RESIDUAL EVALUATIONS FOR LINE SEARCHES
                       0  ADDITIONAL OPERATOR EVALUATIONS FOR LINE SEARCHES
                       0  WARNING MESSAGES DURING USER INPUT PROCESSING
                       0  WARNING MESSAGES DURING ANALYSIS
                       0  ANALYSIS WARNINGS ARE NUMERICAL PROBLEM MESSAGES
                       0  ANALYSIS WARNINGS ARE NEGATIVE EIGENVALUE MESSAGES
                       0  ERROR MESSAGES



     JOB TIME SUMMARY
       USER TIME (SEC)      =   4.1000    
       SYSTEM TIME (SEC)    =  0.20000    
       TOTAL CPU TIME (SEC) =   4.3000    
       WALLCLOCK TIME (SEC) =          6
