 Abaqus/Standard Student Edition 6.14-2                  DATE 16-Feb-2017 TIME 11:46:29
 SUMMARY OF JOB INFORMATION:
 STEP  INC ATT SEVERE EQUIL TOTAL  TOTAL      STEP       INC OF       DOF    IF
               DISCON ITERS ITERS  TIME/    TIME/LPF    TIME/LPF    MONITOR RIKS
               ITERS               FREQ
   1     1   1     0     0     0  0.000      1.00e-036  1.000e-036
                          
 THE ANALYSIS HAS COMPLETED SUCCESSFULLY
